*KEYWORD
$
$ File created by cubit version 2021.11
$...>....1....>....2....>....3....>....4....>....5....>....6....>....7....>....8
*TITLE
$ cubit(C:/Users/danil/Downloads/off.k): 12/19/2023: 13:59:56
*PART
Block 1
$    pid     sid     mid   eosid    hgid    grav  adpopt    tmid
       1       1     100       0       0       0       0     100
*SECTION_SHELL
       1
$     t1      t2      t3      t4
       1       1       1       1

*MAT_ELASTIC
     100   7e-06  206800    0.29     0.0     0.0       0
*MAT_THERMAL_ISOTROPIC
     100     0.0     0.0     0.0     0.0     0.0
     500   0.045
*NODE
$    nid               x               y               z      tc      rc
     186             -10        -9.13043               0       0       0
     141             -10             -10               0       0       0
     187        -9.13043             -10               0       0       0
     231         8.79068         9.23254               0       0       0
     230              10         9.13043               0       0       0
     143         9.13043              10               0       0       0
     146         6.52174              10               0       0       0
     232         6.95652         9.24693               0       0       0
     145          7.3913              10               0       0       0
     148         4.78261              10               0       0       0
     233         5.21739         9.24693               0       0       0
     147         5.65217              10               0       0       0
     150         3.04348              10               0       0       0
     234         3.47826         9.24693               0       0       0
     149         3.91304              10               0       0       0
     152         1.30435              10               0       0       0
     235         1.73913         9.24693               0       0       0
     151         2.17391              10               0       0       0
     236     3.55271e-15         9.24693               0       0       0
     248        0.869565         9.24693               0       0       0
$ ... 625 like lines cut
$
$...>....1....>....2....>....3....>....4....>....5....>....6....>....7....>....8
$    eid     pid      n1      n2      n3      n4      n5      n6      n7      n8
*ELEMENT_SHELL
       1       1     186     141     187     187
       2       1     231     230     143     143
       3       1     146     232     145     145
       4       1     148     233     147     147
       5       1     150     234     149     149
       6       1     152     235     151     151
       7       1     236     248     153     153
       8       1     237     236     154     154
       9       1     157     238     156     156
      10       1     239     238     157     157
      11       1     160     240     159     159
      12       1     241     240     160     160
      13       1     242     241     161     161
      14       1     243     242     162     162
      15       1     244     243     163     163
      16       1     140     165     164     164
      17       1     245     158     159     159
      18       1     246     155     156     156
      19       1     164     247     244     244
      20       1     248     152     153     153
$ ... 1176 like lines cut
*LOAD_NODE_SET
         1         1         1       1.0
*DEFINE_CURVE
         1
       0.0         1
*LOAD_NODE_SET
         1         5         2       1.0
*DEFINE_CURVE
         2
       0.0         1
*SET_NODE_LIST
         1
       142       209       210       211       212       213       214       215
       216       217       218       219       220       221       222       223
       224       225       226       227       228       229       230       139
*END
