*KEYWORD
$
$ File created by cubit version 2021.11
$...>....1....>....2....>....3....>....4....>....5....>....6....>....7....>....8
*TITLE
$ cubit(C:/Users/danil/Downloads/press.k): 12/20/2023: 01:23:50
*PART
Block 1
$    pid     sid     mid   eosid    hgid    grav  adpopt    tmid
       1       1     100       0       0       0       0     100
*SECTION_SHELL
       1
$     t1      t2      t3      t4
       1       1       1       1

*MAT_ELASTIC
     100   7e-06  206800    0.29     0.0     0.0       0
*MAT_THERMAL_ISOTROPIC
     100     0.0     0.0     0.0     0.0     0.0
     500   0.045
*NODE
$    nid               x               y               z      tc      rc
       7               4              10               0       0       0
      41          5.1293         8.21152               0       0       0
       6               6              10               0       0       0
       9               0              10               0       0       0
      42               1         8.35307               0       0       0
       8               2              10               0       0       0
      11              -4              10               0       0       0
      43              -3         8.35307               0       0       0
      10              -2              10               0       0       0
      44         -5.1293         8.21152               0       0       0
      45        -7.24766         8.26426               0       0       0
      12              -6              10               0       0       0
       2             -10              10               0       0       0
      14             -10               8               0       0       0
      13              -8              10               0       0       0
      46              -1         8.35307               0       0       0
      47               3         8.35307               0       0       0
      49         7.24763          8.2643               0       0       0
       5               8              10               0       0       0
      50        -8.33628         5.00841               0       0       0
$ ... 118 like lines cut
$
$...>....1....>....2....>....3....>....4....>....5....>....6....>....7....>....8
$    eid     pid      n1      n2      n3      n4      n5      n6      n7      n8
*ELEMENT_SHELL
       1       1       7      41       6       6
       2       1       9      42       8       8
       3       1      11      43      10      10
       4       1      44      43      11      11
       5       1      45      44      12      12
       6       1       2      14      13      13
       7       1      46       9      10      10
       8       1      47       7       8       8
       9       1      45      13      14      14
      10       1      49       5       6       6
      11       1      50      48      15      15
      12       1      40       1       5       5
      13       1      52      51      17      17
      14       1      20      53      19      19
      15       1      54      53      20      20
      16       1      55      54      21      21
      17       1       3      23      22      22
      18       1      55      22      23      23
      19       1      57      18      19      19
      20       1      59      58      25      25
$ ... 214 like lines cut
*LOAD_SEGMENT
         1       1.0       0.0         4        32        32        32       0.0
*DEFINE_CURVE
         1
       0.0        10
*LOAD_SEGMENT
         2       1.0       0.0        32        33        33        33       0.0
*DEFINE_CURVE
         2
       0.0        10
*LOAD_SEGMENT
         3       1.0       0.0        33        34        34        34       0.0
*DEFINE_CURVE
         3
       0.0        10
*LOAD_SEGMENT
         4       1.0       0.0        34        35        35        35       0.0
*DEFINE_CURVE
         4
       0.0        10
*LOAD_SEGMENT
         5       1.0       0.0        35        36        36        36       0.0
*DEFINE_CURVE
         5
       0.0        10
*LOAD_SEGMENT
         6       1.0       0.0        36        37        37        37       0.0
*DEFINE_CURVE
         6
       0.0        10
*LOAD_SEGMENT
         7       1.0       0.0        37        38        38        38       0.0
*DEFINE_CURVE
         7
       0.0        10
*LOAD_SEGMENT
         8       1.0       0.0        38        39        39        39       0.0
*DEFINE_CURVE
         8
       0.0        10
*LOAD_SEGMENT
         9       1.0       0.0        39        40        40        40       0.0
*DEFINE_CURVE
         9
       0.0        10
*LOAD_SEGMENT
        10       1.0       0.0        40         1         1         1       0.0
*DEFINE_CURVE
        10
       0.0        10
*END
