*KEYWORD
$
$ File created by cubit version 2021.11
$...>....1....>....2....>....3....>....4....>....5....>....6....>....7....>....8
*TITLE
$ cubit(C:/Users/danil/Downloads/sad.k): 12/18/2023: 10:07:41
*PART
Block 2
$    pid     sid     mid   eosid    hgid    grav  adpopt    tmid
       2       2     100       0       0       0       0     100
*SECTION_SHELL
       2
$     t1      t2      t3      t4
       1       1       1       1

*MAT_ELASTIC
     100   7e-06  206800    0.29     0.0     0.0       0
*MAT_THERMAL_ISOTROPIC
     100     0.0     0.0     0.0     0.0     0.0
     500   0.045
*NODE
$    nid               x               y               z      tc      rc
    2122        0.727273        0.272727               0       0       0
    2123        0.772727        0.227273               0       0       0
    2128         0.71137         0.21137               0       0       0
    2106      -0.0454545        0.954545               0       0       0
    2054               0               1               0       0       0
    2107       0.0454545        0.954545               0       0       0
    2104       -0.136364        0.863636               0       0       0
    2105      -0.0909091        0.909091               0       0       0
    2129      -0.0702833        0.847389               0       0       0
    2103       -0.181818        0.818182               0       0       0
    2130       -0.120461        0.802279               0       0       0
    2102       -0.227273        0.772727               0       0       0
    2131       -0.165915        0.756825               0       0       0
    2101       -0.272727        0.727273               0       0       0
    2132        -0.21137         0.71137               0       0       0
    2100       -0.318182        0.681818               0       0       0
    2133       -0.256825        0.665915               0       0       0
    2099       -0.363636        0.636364               0       0       0
    2134       -0.302279        0.620461               0       0       0
    2098       -0.409091        0.590909               0       0       0
$ ... 305 like lines cut
$
$...>....1....>....2....>....3....>....4....>....5....>....6....>....7....>....8
$    eid     pid      n1      n2      n3      n4      n5      n6      n7      n8
*ELEMENT_SHELL
       1       2    2122    2123    2128    2128
       2       2    2106    2054    2107    2107
       3       2    2104    2105    2129    2129
       4       2    2103    2104    2130    2130
       5       2    2102    2103    2131    2131
       6       2    2101    2102    2132    2132
       7       2    2100    2101    2133    2133
       8       2    2099    2100    2134    2134
       9       2    2098    2099    2135    2135
      10       2    2097    2098    2136    2136
      11       2    2096    2097    2137    2137
      12       2    2095    2096    2138    2138
      13       2    2094    2095    2139    2139
      14       2    2093    2094    2140    2140
      15       2    2092    2093    2141    2141
      16       2    2089    2090    2142    2142
      17       2    2088    2089    2143    2143
      18       2    2087    2088    2144    2144
      19       2    2086    2087    2084    2084
      20       2    2086    2084    2085    2085
$ ... 552 like lines cut
*SET_NODE_LIST
         1
      2054      2107      2108      2109      2110      2111      2112      2113
      2114      2115      2116      2117      2118      2119      2120      2121
      2122      2123      2124      2125      2126      2127      2052
*END
