*KEYWORD
$
$ File created by cubit version 2021.11
$...>....1....>....2....>....3....>....4....>....5....>....6....>....7....>....8
*TITLE
$ cubit(:/Users/danil/FEM_solver_folder/raw_meshes/2D/samolet_3.k): 12/21/2023: 19
*PART
Block 1
$    pid     sid     mid   eosid    hgid    grav  adpopt    tmid
       1       1     100       0       0       0       0     100
*SECTION_SHELL
       1
$     t1      t2      t3      t4
       1       1       1       1

*MAT_ELASTIC
     100   7e-06  206800    0.29     0.0     0.0       0
*MAT_THERMAL_ISOTROPIC
     100     0.0     0.0     0.0     0.0     0.0
     500   0.045
*NODE
$    nid               x               y               z      tc      rc
    1333       -0.461845         8.12815               0       0       0
    1256         -1.2766         8.14894               0       0       0
    1257       -0.851064         8.76596               0       0       0
    1148              -1               5               0       0       0
    1163       -0.610642         5.62712               0       0       0
    1334       -0.293777         5.01585               0       0       0
    1164    -4.44089e-16               6               0       0       0
    1335        0.291664         5.01513               0       0       0
    1165        0.610642         5.62712               0       0       0
    1149               1               5               0       0       0
    1336        -3.93373         3.15276               0       0       0
    1248        -4.68085         3.21277               0       0       0
    1249        -4.25532         3.82979               0       0       0
    1147              -2               5               0       0       0
    1337        -1.53041         4.39681               0       0       0
    1179       -0.571429        -19.4286               0       0       0
    1630       0.0546219        -19.2243               0       0       0
    1151               0             -20               0       0       0
    1173        0.571429        -19.4286               0       0       0
    1338         0.38495        -18.6256               0       0       0
$ ... 1073 like lines cut
$
$...>....1....>....2....>....3....>....4....>....5....>....6....>....7....>....8
$    eid     pid      n1      n2      n3      n4      n5      n6      n7      n8
*ELEMENT_SHELL
       1       1    1333    1256    1257    1257
       2       1    1148    1163    1334    1334
       3       1    1163    1164    1334    1334
       4       1    1335    1165    1149    1149
       5       1    1336    1248    1249    1249
       6       1    1147    1148    1337    1337
       7       1    1179    1630    1151    1151
       8       1    1630    1173    1151    1151
       9       1    1338    1630    1339    1339
      10       1    1339    1180    1340    1340
      11       1    1340    1618    1619    1619
      12       1    1159    1308    1259    1259
      13       1    1259    1308    1343    1343
      14       1    1344    1184    1153    1153
      15       1    1175    1174    1345    1345
      16       1    1176    1175    1346    1346
      17       1    1177    1176    1347    1347
      18       1    1237    1238    1348    1348
      19       1    1178    1177    1349    1349
      20       1    1342    1183    1350    1350
$ ... 1980 like lines cut
*LOAD_NODE_SET
         1         2         1       1.0
*DEFINE_CURVE
         1
       0.0        -1
*LOAD_NODE_SET
         1         6         2       1.0
*DEFINE_CURVE
         2
       0.0        -1
*SET_NODE_LIST
         1
      1155      1156      1161      1160      1197      1198      1199      1200
      1201      1202      1203      1204      1205      1206      1207      1208
      1309      1310      1311      1312      1313      1314      1315      1316
      1317      1318      1319      1320
*END
