*KEYWORD
$
$ File created by cubit version 2021.11
$...>....1....>....2....>....3....>....4....>....5....>....6....>....7....>....8
*TITLE
$ cubit(C:/Users/danil/Downloads/sdjfj.k): 12/19/2023: 14:22:59
*PART
Block 1
$    pid     sid     mid   eosid    hgid    grav  adpopt    tmid
       1       1     100       0       0       0       0     100
*SECTION_SHELL
       1
$     t1      t2      t3      t4
       1       1       1       1

*MAT_ELASTIC
     100   7e-06  206800    0.29     0.0     0.0       0
*MAT_THERMAL_ISOTROPIC
     100     0.0     0.0     0.0     0.0     0.0
     500   0.045
*NODE
$    nid               x               y               z      tc      rc
       7               2               5               0       0       0
      41         2.56465         4.10576               0       0       0
       6               3               5               0       0       0
       9               0               5               0       0       0
      42             0.5         4.17653               0       0       0
       8               1               5               0       0       0
      11              -2               5               0       0       0
      43            -1.5         4.17653               0       0       0
      10              -1               5               0       0       0
      44        -2.56465         4.10576               0       0       0
      45        -3.62383         4.13213               0       0       0
      12              -3               5               0       0       0
       2              -5               5               0       0       0
      14              -5               4               0       0       0
      13              -4               5               0       0       0
      46            -0.5         4.17653               0       0       0
      47             1.5         4.17653               0       0       0
      49         3.62382         4.13215               0       0       0
       5               4               5               0       0       0
      50        -4.16814          2.5042               0       0       0
$ ... 118 like lines cut
$
$...>....1....>....2....>....3....>....4....>....5....>....6....>....7....>....8
$    eid     pid      n1      n2      n3      n4      n5      n6      n7      n8
*ELEMENT_SHELL
       1       1       7      41       6       6
       2       1       9      42       8       8
       3       1      11      43      10      10
       4       1      44      43      11      11
       5       1      45      44      12      12
       6       1       2      14      13      13
       7       1      46       9      10      10
       8       1      47       7       8       8
       9       1      45      13      14      14
      10       1      49       5       6       6
      11       1      50      48      15      15
      12       1      40       1       5       5
      13       1      52      51      17      17
      14       1      20      53      19      19
      15       1      54      53      20      20
      16       1      55      54      21      21
      17       1       3      23      22      22
      18       1      55      22      23      23
      19       1      57      18      19      19
      20       1      59      58      25      25
$ ... 214 like lines cut
*LOAD_NODE_SET
         1         1         1       1.0
*DEFINE_CURVE
         1
       0.0         1
*LOAD_NODE_SET
         1         5         2       1.0
*DEFINE_CURVE
         2
       0.0         1
*SET_NODE_LIST
         1
         1         5         6         7         8         9        10        11
        12        13         2
*END
